sistemas/Joe_Chow_9_Bus.cdf
 24/01/09 Joe Chow Case pg 70  100.00 2008 W Joe Chow 9 bus case 
=========1=========2=========3=========4=========5=========6=========7=========8=========9=========0=========1=========2=========3==
1234 NNNNNNNNNNNN AAZZZ TT X.XXXX+XXX.XX+XXXXX.XX+XXXXX.XX+XXXXX.XX+XXXX.XX XXXX.XX X.XXXX+XXXX.XX+XXXX.XX+XX.XXXX+XX.XXXX 1234 1234
BUS DATA FOLLOWS                             9 ITEMS
   1 Bus 1         0  1  3 1.0000   0.00     0.00     0.00     0.00    0.00  345.00 1.0000  300.00 -300.00  0.0000  0.0000    0    0
   2 Bus 2         0  1  2 1.0000   9.67     0.00     0.00   163.00   14.46  345.00 1.0000  300.00 -300.00  0.0000  0.0000    0    0
   3 Bus 3         0  1  2 1.0000   4.77     0.00     0.00    85.00   -3.65  345.00 1.0000  300.00 -300.00  0.0000  0.0000    0    0
   4 Bus 4         0  1  1 0.9870  -2.41     0.00     0.00     0.00    0.00  345.00 1.0000    0.00    0.00  0.0000  0.0000    0    0
   5 Bus 5         0  1  1 0.9750  -4.02    90.00    30.00     0.00    0.00  345.00 1.0000    0.00    0.00  0.0000  0.0000    0    0
   6 Bus 6         0  1  1 1.0030   1.93     0.00     0.00     0.00    0.00  345.00 1.0000    0.00    0.00  0.0000  0.0000    0    0
   7 Bus 7         0  1  1 0.9860   0.62   100.00    35.00     0.00    0.00  345.00 1.0000    0.00    0.00  0.0000  0.0000    0    0
   8 Bus 8         0  1  1 0.9960   3.80     0.00     0.00     0.00    0.00  345.00 1.0000    0.00    0.00  0.0000  0.0000    0    0
   9 Bus 9         0  1  1 0.9580  -4.35   125.00    50.00     0.00    0.00  345.00 1.0000    0.00    0.00  0.0000  0.0000    0    0
-999
=========1=========2=========3=========4=========5=========6=========7=========8=========9=========0=========1=========2=========3==
1234 1234 AAZZZ C T+xx.xxxxxx+xx.xxxxxx xxx.xxxxx 12345 12345 12345 1234 1  x.xxxx +xxx.xx x.xxxx x.xxxx .xxxxx  x.xxxx  x.xxxx 1234
BRANCH DATA FOLLOWS                         9 ITEMS
   1    4  0  1 1 0  0.000000  0.057600   0.00000   250   250   250    0 0  0.0000    0.00 0.0000 0.0000 .00000  0.0000  0.0000    0
   4    5  0  1 1 0  0.017000  0.092000   0.15800   250   250   250    0 0  0.0000    0.00 0.0000 0.0000 .00000  0.0000  0.0000    0
   5    6  0  1 1 0  0.039000  0.170000   0.35800   150   150   150    0 0  0.0000    0.00 0.0000 0.0000 .00000  0.0000  0.0000    0
   3    6  0  1 1 0  0.000000  0.058600   0.00000   300   300   300    0 0  0.0000    0.00 0.0000 0.0000 .00000  0.0000  0.0000    0
   6    7  0  1 1 0  0.011900  0.100800   0.20900   150   150   150    0 0  0.0000    0.00 0.0000 0.0000 .00000  0.0000  0.0000    0
   7    8  0  1 1 0  0.008500  0.072000   0.14900   250   250   250    0 0  0.0000    0.00 0.0000 0.0000 .00000  0.0000  0.0000    0
   8    2  0  1 1 0  0.000000  0.062500   0.00000   250   250   250    0 0  0.0000    0.00 0.0000 0.0000 .00000  0.0000  0.0000    0
   8    9  0  1 1 0  0.032000  0.161000   0.30600   250   250   250    0 0  0.0000    0.00 0.0000 0.0000 .00000  0.0000  0.0000    0
   9    4  0  1 1 0  0.010000  0.085000   0.17600   250   250   250    0 0  0.0000    0.00 0.0000 0.0000 .00000  0.0000  0.0000    0
-999
LOSS ZONES FOLLOWS                     1 ITEMS
  1 IEEE 3 BUS
-99
INTERCHANGE DATA FOLLOWS                 1 ITEMS
-9
TIE LINES FOLLOWS                     0 ITEMS
-999
END OF DATA
